examples/feeders/30_SE001_1/004_chavesMT.dss
New Line.10CF_1011 phases=1 bus1=559291.1 bus2=10CF1011.1 r1=0.001 r0=0.001 x1=0 x0=0 c1=0 c0=0 length=0.001 switch=T
New Line.10CF_1406 phases=3 bus1=678241.1.2.3 bus2=10CF1406.1.2.3 r1=0.001 r0=0.001 x1=0 x0=0 c1=0 c0=0 length=0.001 switch=T
New Line.10CF_1472 phases=3 bus1=395731.1.2.3 bus2=10CF1472.1.2.3 r1=0.001 r0=0.001 x1=0 x0=0 c1=0 c0=0 length=0.001 switch=T
New Line.10CF_1546 phases=1 bus1=757871.3 bus2=10CF1546.3 r1=0.001 r0=0.001 x1=0 x0=0 c1=0 c0=0 length=0.001 switch=T
New Line.10CF_1574 phases=1 bus1=757881.3 bus2=10CF1574.3 r1=0.001 r0=0.001 x1=0 x0=0 c1=0 c0=0 length=0.001 switch=T
New Line.10CF_1600 phases=1 bus1=757861.3 bus2=10CF1600.3 r1=0.001 r0=0.001 x1=0 x0=0 c1=0 c0=0 length=0.001 switch=T
New Line.10CF_1796 phases=1 bus1=790641.3 bus2=10CF1796.3 r1=0.001 r0=0.001 x1=0 x0=0 c1=0 c0=0 length=0.001 switch=T
New Line.10CF_1797 phases=1 bus1=790651.3 bus2=10CF1797.3 r1=0.001 r0=0.001 x1=0 x0=0 c1=0 c0=0 length=0.001 switch=T
New Line.10CF_1798 phases=1 bus1=790671.1 bus2=10CF1798.1 r1=0.001 r0=0.001 x1=0 x0=0 c1=0 c0=0 length=0.001 switch=T
New Line.10CF_1799 phases=1 bus1=790681.3 bus2=10CF1799.3 r1=0.001 r0=0.001 x1=0 x0=0 c1=0 c0=0 length=0.001 switch=T
New Line.10CF_1898 phases=1 bus1=810621.2 bus2=10CF1898.2 r1=0.001 r0=0.001 x1=0 x0=0 c1=0 c0=0 length=0.001 switch=T
New Line.10CF_1899 phases=1 bus1=790691.3 bus2=10CF1899.3 r1=0.001 r0=0.001 x1=0 x0=0 c1=0 c0=0 length=0.001 switch=T
New Line.10CF_525 phases=1 bus1=222041.1 bus2=10CF525.1 r1=0.001 r0=0.001 x1=0 x0=0 c1=0 c0=0 length=0.001 switch=T
New Line.10CF_529 phases=3 bus1=790661.1.2.3 bus2=10CF529.1.2.3 r1=0.001 r0=0.001 x1=0 x0=0 c1=0 c0=0 length=0.001 switch=T
New Line.10CF_870 phases=1 bus1=620161.1 bus2=10CF870.1 r1=0.001 r0=0.001 x1=0 x0=0 c1=0 c0=0 length=0.001 switch=T
New Line.10CS_528 phases=3 bus1=222051.1.2.3 bus2=10CS528.1.2.3 r1=0.001 r0=0.001 x1=0 x0=0 c1=0 c0=0 length=0.001 switch=T
New Line.10CS_531 phases=1 bus1=164731.3 bus2=10CS531.3 r1=0.001 r0=0.001 x1=0 x0=0 c1=0 c0=0 length=0.001 switch=T
New Line.10CS_594 phases=1 bus1=611081.1 bus2=10CS594.1 r1=0.001 r0=0.001 x1=0 x0=0 c1=0 c0=0 length=0.001 switch=T
New Line.10CS_750 phases=3 bus1=222061.1.2.3 bus2=10CS750.1.2.3 r1=0.001 r0=0.001 x1=0 x0=0 c1=0 c0=0 length=0.001 switch=T
New Line.10FR_1718 phases=2 bus1=772771.1.2 bus2=10FR1718.1.2 r1=0.001 r0=0.001 x1=0 x0=0 c1=0 c0=0 length=0.001 switch=T
New Line.10FR_527 phases=3 bus1=349781.1.2.3 bus2=10FR527.1.2.3 r1=0.001 r0=0.001 x1=0 x0=0 c1=0 c0=0 length=0.001 switch=T
New Line.10FS_530 phases=1 bus1=581711.3 bus2=10FS530.3 r1=0.001 r0=0.001 x1=0 x0=0 c1=0 c0=0 length=0.001 switch=T
New Line.13CF_1485 phases=3 bus1=814691.1.2.3 bus2=13CF1485.1.2.3 r1=0.001 r0=0.001 x1=0 x0=0 c1=0 c0=0 length=0.001 switch=T
New Line.13CF_225 phases=2 bus1=474961.1.2 bus2=13CF225.1.2 r1=0.001 r0=0.001 x1=0 x0=0 c1=0 c0=0 length=0.001 switch=T
New Line.13CF_418 phases=3 bus1=340311.1.2.3 bus2=13CF418.1.2.3 r1=0.001 r0=0.001 x1=0 x0=0 c1=0 c0=0 length=0.001 switch=T
New Line.13CF_639 phases=3 bus1=424931.1.2.3 bus2=13CF639.1.2.3 r1=0.001 r0=0.001 x1=0 x0=0 c1=0 c0=0 length=0.001 switch=T
New Line.13CF_643 phases=1 bus1=340301.1 bus2=13CF643.1 r1=0.001 r0=0.001 x1=0 x0=0 c1=0 c0=0 length=0.001 switch=T
New Line.13CS_1882 phases=3 bus1=792751.1.2.3 bus2=13CS1882.1.2.3 r1=0.001 r0=0.001 x1=0 x0=0 c1=0 c0=0 length=0.001 switch=T
New Line.13CS_366 phases=3 bus1=677621.1.2.3 bus2=13CS366.1.2.3 r1=0.001 r0=0.001 x1=0 x0=0 c1=0 c0=0 length=0.001 switch=T
New Line.13FS_1480 phases=1 bus1=692221.1 bus2=13FS1480.1 r1=0.001 r0=0.001 x1=0 x0=0 c1=0 c0=0 length=0.001 switch=T
New Line.17CF_1837 phases=3 bus1=797121.1.2.3 bus2=17CF1837.1.2.3 r1=0.001 r0=0.001 x1=0 x0=0 c1=0 c0=0 length=0.001 switch=T
New Line.17CS_1756 phases=3 bus1=779841.1.2.3 bus2=17CS1756.1.2.3 r1=0.001 r0=0.001 x1=0 x0=0 c1=0 c0=0 length=0.001 switch=T
New Line.17DJ_30 phases=3 bus1=1_SE001_30.1.2.3 bus2=17DJ30.1.2.3 r1=0.001 r0=0.001 x1=0 x0=0 c1=0 c0=0 length=0.001 switch=T
New Line.17FR_641 phases=3 bus1=791801.1.2.3 bus2=17FR641.1.2.3 r1=0.001 r0=0.001 x1=0 x0=0 c1=0 c0=0 length=0.001 switch=T
New Line.17RL_5220 phases=3 bus1=789581.1.2.3 bus2=17RL5220.1.2.3 r1=0.001 r0=0.001 x1=0 x0=0 c1=0 c0=0 length=0.001 switch=T
New Line.1CF_1056 phases=1 bus1=103171.3 bus2=1CF1056.3 r1=0.001 r0=0.001 x1=0 x0=0 c1=0 c0=0 length=0.001 switch=T
New Line.1CF_1163 phases=3 bus1=667451.1.2.3 bus2=1CF1163.1.2.3 r1=0.001 r0=0.001 x1=0 x0=0 c1=0 c0=0 length=0.001 switch=T
New Line.1CF_1164 phases=3 bus1=667541.1.2.3 bus2=1CF1164.1.2.3 r1=0.001 r0=0.001 x1=0 x0=0 c1=0 c0=0 length=0.001 switch=T
New Line.1CF_1405 phases=3 bus1=802851.1.2.3 bus2=1CF1405.1.2.3 r1=0.001 r0=0.001 x1=0 x0=0 c1=0 c0=0 length=0.001 switch=T
New Line.1CF_1426 phases=3 bus1=617731.1.2.3 bus2=1CF1426.1.2.3 r1=0.001 r0=0.001 x1=0 x0=0 c1=0 c0=0 length=0.001 switch=T
New Line.1CF_1535 phases=3 bus1=748761.1.2.3 bus2=1CF1535.1.2.3 r1=0.001 r0=0.001 x1=0 x0=0 c1=0 c0=0 length=0.001 switch=T
New Line.1CF_1622 phases=3 bus1=791841.1.2.3 bus2=1CF1622.1.2.3 r1=0.001 r0=0.001 x1=0 x0=0 c1=0 c0=0 length=0.001 switch=T
New Line.1CF_1767 phases=3 bus1=781821.1.2.3 bus2=1CF1767.1.2.3 r1=0.001 r0=0.001 x1=0 x0=0 c1=0 c0=0 length=0.001 switch=T
New Line.1CF_1858 phases=1 bus1=795291.1 bus2=1CF1858.1 r1=0.001 r0=0.001 x1=0 x0=0 c1=0 c0=0 length=0.001 switch=T
New Line.1CF_1896 phases=1 bus1=790911.1 bus2=1CF1896.1 r1=0.001 r0=0.001 x1=0 x0=0 c1=0 c0=0 length=0.001 switch=T
New Line.1CF_415 phases=3 bus1=617681.1.2.3 bus2=1CF415.1.2.3 r1=0.001 r0=0.001 x1=0 x0=0 c1=0 c0=0 length=0.001 switch=T
New Line.1CF_610 phases=3 bus1=329291.1.2.3 bus2=1CF610.1.2.3 r1=0.001 r0=0.001 x1=0 x0=0 c1=0 c0=0 length=0.001 switch=T
New Line.1CF_91 phases=3 bus1=309971.1.2.3 bus2=1CF91.1.2.3 r1=0.001 r0=0.001 x1=0 x0=0 c1=0 c0=0 length=0.001 switch=T
New Line.1CF_988 phases=3 bus1=791821.1.2.3 bus2=1CF988.1.2.3 r1=0.001 r0=0.001 x1=0 x0=0 c1=0 c0=0 length=0.001 switch=T
New Line.1CS_1682 phases=3 bus1=786351.1.2.3 bus2=1CS1682.1.2.3 r1=0.001 r0=0.001 x1=0 x0=0 c1=0 c0=0 length=0.001 switch=T
New Line.1CS_1766 phases=3 bus1=781832.1.2.3 bus2=1CS1766.1.2.3 r1=0.001 r0=0.001 x1=0 x0=0 c1=0 c0=0 length=0.001 switch=T
New Line.1FR_902 phases=3 bus1=574051.1.2.3 bus2=1FR902.1.2.3 r1=0.001 r0=0.001 x1=0 x0=0 c1=0 c0=0 length=0.001 switch=T
New Line.1RL_1721 phases=3 bus1=785751.1.2.3 bus2=1RL1721.1.2.3 r1=0.001 r0=0.001 x1=0 x0=0 c1=0 c0=0 length=0.001 switch=T
New Line.1RL_903 phases=3 bus1=574041.1.2.3 bus2=1RL903.1.2.3 r1=0.001 r0=0.001 x1=0 x0=0 c1=0 c0=0 length=0.001 switch=T
New Line.25CF_1010 phases=3 bus1=517981.1.2.3 bus2=25CF1010.1.2.3 r1=0.001 r0=0.001 x1=0 x0=0 c1=0 c0=0 length=0.001 switch=T
New Line.25CF_1019 phases=3 bus1=602491.1.2.3 bus2=25CF1019.1.2.3 r1=0.001 r0=0.001 x1=0 x0=0 c1=0 c0=0 length=0.001 switch=T
New Line.25CF_1065 phases=3 bus1=584531.1.2.3 bus2=25CF1065.1.2.3 r1=0.001 r0=0.001 x1=0 x0=0 c1=0 c0=0 length=0.001 switch=T
New Line.25CF_1077 phases=3 bus1=543931.1.2.3 bus2=25CF1077.1.2.3 r1=0.001 r0=0.001 x1=0 x0=0 c1=0 c0=0 length=0.001 switch=T
New Line.25CF_1314 phases=1 bus1=740191.1 bus2=25CF1314.1 r1=0.001 r0=0.001 x1=0 x0=0 c1=0 c0=0 length=0.001 switch=T
New Line.25CF_1323 phases=3 bus1=190091.1.2.3 bus2=25CF1323.1.2.3 r1=0.001 r0=0.001 x1=0 x0=0 c1=0 c0=0 length=0.001 switch=T
New Line.25CF_1378 phases=1 bus1=746311.3 bus2=25CF1378.3 r1=0.001 r0=0.001 x1=0 x0=0 c1=0 c0=0 length=0.001 switch=T
New Line.25CF_1448 phases=3 bus1=678661.1.2.3 bus2=25CF1448.1.2.3 r1=0.001 r0=0.001 x1=0 x0=0 c1=0 c0=0 length=0.001 switch=T
New Line.25CF_1458 phases=3 bus1=743171.1.2.3 bus2=25CF1458.1.2.3 r1=0.001 r0=0.001 x1=0 x0=0 c1=0 c0=0 length=0.001 switch=T
New Line.25CF_1465 phases=1 bus1=677771.1 bus2=25CF1465.1 r1=0.001 r0=0.001 x1=0 x0=0 c1=0 c0=0 length=0.001 switch=T
New Line.25CF_1468 phases=1 bus1=674081.2 bus2=25CF1468.2 r1=0.001 r0=0.001 x1=0 x0=0 c1=0 c0=0 length=0.001 switch=T
New Line.25CF_1498 phases=3 bus1=679271.1.2.3 bus2=25CF1498.1.2.3 r1=0.001 r0=0.001 x1=0 x0=0 c1=0 c0=0 length=0.001 switch=T
New Line.25CF_1575 phases=1 bus1=756441.2 bus2=25CF1575.2 r1=0.001 r0=0.001 x1=0 x0=0 c1=0 c0=0 length=0.001 switch=T
New Line.25CF_1635 phases=3 bus1=762711.1.2.3 bus2=25CF1635.1.2.3 r1=0.001 r0=0.001 x1=0 x0=0 c1=0 c0=0 length=0.001 switch=T
New Line.25CF_1636 phases=3 bus1=767071.1.2.3 bus2=25CF1636.1.2.3 r1=0.001 r0=0.001 x1=0 x0=0 c1=0 c0=0 length=0.001 switch=T
New Line.25CF_1677 phases=1 bus1=809141.1 bus2=25CF1677.1 r1=0.001 r0=0.001 x1=0 x0=0 c1=0 c0=0 length=0.001 switch=T
New Line.25CF_1696 phases=1 bus1=767351.1 bus2=25CF1696.1 r1=0.001 r0=0.001 x1=0 x0=0 c1=0 c0=0 length=0.001 switch=T
New Line.25CF_1760 phases=1 bus1=799151.2 bus2=25CF1760.2 r1=0.001 r0=0.001 x1=0 x0=0 c1=0 c0=0 length=0.001 switch=T
New Line.25CF_1808 phases=3 bus1=775621.1.2.3 bus2=25CF1808.1.2.3 r1=0.001 r0=0.001 x1=0 x0=0 c1=0 c0=0 length=0.001 switch=T
New Line.25CF_1834 phases=1 bus1=799001.1 bus2=25CF1834.1 r1=0.001 r0=0.001 x1=0 x0=0 c1=0 c0=0 length=0.001 switch=T
New Line.25CF_1840 phases=3 bus1=797031.1.2.3 bus2=25CF1840.1.2.3 r1=0.001 r0=0.001 x1=0 x0=0 c1=0 c0=0 length=0.001 switch=T
New Line.25CF_1861 phases=3 bus1=798981.1.2.3 bus2=25CF1861.1.2.3 r1=0.001 r0=0.001 x1=0 x0=0 c1=0 c0=0 length=0.001 switch=T
New Line.25CF_1862 phases=3 bus1=799031.1.2.3 bus2=25CF1862.1.2.3 r1=0.001 r0=0.001 x1=0 x0=0 c1=0 c0=0 length=0.001 switch=T
New Line.25CF_1863 phases=3 bus1=799061.1.2.3 bus2=25CF1863.1.2.3 r1=0.001 r0=0.001 x1=0 x0=0 c1=0 c0=0 length=0.001 switch=T
New Line.25CF_1871 phases=3 bus1=805131.1.2.3 bus2=25CF1871.1.2.3 r1=0.001 r0=0.001 x1=0 x0=0 c1=0 c0=0 length=0.001 switch=T
New Line.25CF_295 phases=3 bus1=720021.1.2.3 bus2=25CF295.1.2.3 r1=0.001 r0=0.001 x1=0 x0=0 c1=0 c0=0 length=0.001 switch=T
New Line.25CF_535 phases=3 bus1=625191.1.2.3 bus2=25CF535.1.2.3 r1=0.001 r0=0.001 x1=0 x0=0 c1=0 c0=0 length=0.001 switch=T
New Line.25CF_671 phases=3 bus1=762721.1.2.3 bus2=25CF671.1.2.3 r1=0.001 r0=0.001 x1=0 x0=0 c1=0 c0=0 length=0.001 switch=T
New Line.25CF_702 phases=3 bus1=375711.1.2.3 bus2=25CF702.1.2.3 r1=0.001 r0=0.001 x1=0 x0=0 c1=0 c0=0 length=0.001 switch=T
New Line.25CF_766 phases=3 bus1=475611.1.2.3 bus2=25CF766.1.2.3 r1=0.001 r0=0.001 x1=0 x0=0 c1=0 c0=0 length=0.001 switch=T
New Line.25CF_835 phases=3 bus1=629191.1.2.3 bus2=25CF835.1.2.3 r1=0.001 r0=0.001 x1=0 x0=0 c1=0 c0=0 length=0.001 switch=T
New Line.25CF_843 phases=3 bus1=345151.1.2.3 bus2=25CF843.1.2.3 r1=0.001 r0=0.001 x1=0 x0=0 c1=0 c0=0 length=0.001 switch=T
New Line.25CF_862 phases=3 bus1=13311.1.2.3 bus2=25CF862.1.2.3 r1=0.001 r0=0.001 x1=0 x0=0 c1=0 c0=0 length=0.001 switch=T
New Line.25CF_863 phases=3 bus1=311521.1.2.3 bus2=25CF863.1.2.3 r1=0.001 r0=0.001 x1=0 x0=0 c1=0 c0=0 length=0.001 switch=T
New Line.25CF_866 phases=3 bus1=556441.1.2.3 bus2=25CF866.1.2.3 r1=0.001 r0=0.001 x1=0 x0=0 c1=0 c0=0 length=0.001 switch=T
New Line.25CF_912 phases=3 bus1=795071.1.2.3 bus2=25CF912.1.2.3 r1=0.001 r0=0.001 x1=0 x0=0 c1=0 c0=0 length=0.001 switch=T
New Line.25CF_980 phases=3 bus1=595991.1.2.3 bus2=25CF980.1.2.3 r1=0.001 r0=0.001 x1=0 x0=0 c1=0 c0=0 length=0.001 switch=T
New Line.25CS_1045 phases=3 bus1=796831.1.2.3 bus2=25CS1045.1.2.3 r1=0.001 r0=0.001 x1=0 x0=0 c1=0 c0=0 length=0.001 switch=T
New Line.25CS_1256 phases=3 bus1=719991.1.2.3 bus2=25CS1256.1.2.3 r1=0.001 r0=0.001 x1=0 x0=0 c1=0 c0=0 length=0.001 switch=T
New Line.25CS_1506 phases=3 bus1=692761.1.2.3 bus2=25CS1506.1.2.3 r1=0.001 r0=0.001 x1=0 x0=0 c1=0 c0=0 length=0.001 switch=T
New Line.25CS_1839 phases=3 bus1=797021.1.2.3 bus2=25CS1839.1.2.3 r1=0.001 r0=0.001 x1=0 x0=0 c1=0 c0=0 length=0.001 switch=T
New Line.25CS_1841 phases=3 bus1=800324.1.2.3 bus2=25CS1841.1.2.3 r1=0.001 r0=0.001 x1=0 x0=0 c1=0 c0=0 length=0.001 switch=T
New Line.25CS_1842 phases=3 bus1=800341.1.2.3 bus2=25CS1842.1.2.3 r1=0.001 r0=0.001 x1=0 x0=0 c1=0 c0=0 length=0.001 switch=T
New Line.25FR_165 phases=1 bus1=628761.3 bus2=25FR165.3 r1=0.001 r0=0.001 x1=0 x0=0 c1=0 c0=0 length=0.001 switch=T
New Line.25FR_266 phases=1 bus1=180871.2 bus2=25FR266.2 r1=0.001 r0=0.001 x1=0 x0=0 c1=0 c0=0 length=0.001 switch=T
New Line.25FR_293 phases=3 bus1=199071.1.2.3 bus2=25FR293.1.2.3 r1=0.001 r0=0.001 x1=0 x0=0 c1=0 c0=0 length=0.001 switch=T
New Line.25FR_357 phases=1 bus1=113011.1 bus2=25FR357.1 r1=0.001 r0=0.001 x1=0 x0=0 c1=0 c0=0 length=0.001 switch=T
New Line.25RL_1516 phases=3 bus1=700931.1.2.3 bus2=25RL1516.1.2.3 r1=0.001 r0=0.001 x1=0 x0=0 c1=0 c0=0 length=0.001 switch=T
New Line.25RL_294 phases=3 bus1=807331.1.2.3 bus2=25RL294.1.2.3 r1=0.001 r0=0.001 x1=0 x0=0 c1=0 c0=0 length=0.001 switch=T
New Line.25RL_296 phases=3 bus1=266902.1.2.3 bus2=25RL296.1.2.3 r1=0.001 r0=0.001 x1=0 x0=0 c1=0 c0=0 length=0.001 switch=T
New Line.30CF_1038 phases=3 bus1=638461.1.2.3 bus2=30CF1038.1.2.3 r1=0.001 r0=0.001 x1=0 x0=0 c1=0 c0=0 length=0.001 switch=T
New Line.30CF_1043 phases=1 bus1=772161.2 bus2=30CF1043.2 r1=0.001 r0=0.001 x1=0 x0=0 c1=0 c0=0 length=0.001 switch=T
New Line.30CF_1167 phases=1 bus1=660701.1 bus2=30CF1167.1 r1=0.001 r0=0.001 x1=0 x0=0 c1=0 c0=0 length=0.001 switch=T
New Line.30CF_1168 phases=3 bus1=764551.1.2.3 bus2=30CF1168.1.2.3 r1=0.001 r0=0.001 x1=0 x0=0 c1=0 c0=0 length=0.001 switch=T
New Line.30CF_1260 phases=1 bus1=784481.1 bus2=30CF1260.1 r1=0.001 r0=0.001 x1=0 x0=0 c1=0 c0=0 length=0.001 switch=T
New Line.30CF_1309 phases=1 bus1=735691.2 bus2=30CF1309.2 r1=0.001 r0=0.001 x1=0 x0=0 c1=0 c0=0 length=0.001 switch=T
New Line.30CF_1390 phases=3 bus1=687881.1.2.3 bus2=30CF1390.1.2.3 r1=0.001 r0=0.001 x1=0 x0=0 c1=0 c0=0 length=0.001 switch=T
New Line.30CF_1404 phases=3 bus1=796611.1.2.3 bus2=30CF1404.1.2.3 r1=0.001 r0=0.001 x1=0 x0=0 c1=0 c0=0 length=0.001 switch=T
New Line.30CF_1408 phases=3 bus1=772761.1.2.3 bus2=30CF1408.1.2.3 r1=0.001 r0=0.001 x1=0 x0=0 c1=0 c0=0 length=0.001 switch=T
New Line.30CF_1424 phases=3 bus1=683451.1.2.3 bus2=30CF1424.1.2.3 r1=0.001 r0=0.001 x1=0 x0=0 c1=0 c0=0 length=0.001 switch=T
New Line.30CF_1429 phases=3 bus1=746751.1.2.3 bus2=30CF1429.1.2.3 r1=0.001 r0=0.001 x1=0 x0=0 c1=0 c0=0 length=0.001 switch=T
New Line.30CF_1505 phases=1 bus1=764581.1 bus2=30CF1505.1 r1=0.001 r0=0.001 x1=0 x0=0 c1=0 c0=0 length=0.001 switch=T
New Line.30CF_1513 phases=1 bus1=749751.3 bus2=30CF1513.3 r1=0.001 r0=0.001 x1=0 x0=0 c1=0 c0=0 length=0.001 switch=T
New Line.30CF_1560 phases=3 bus1=749841.1.2.3 bus2=30CF1560.1.2.3 r1=0.001 r0=0.001 x1=0 x0=0 c1=0 c0=0 length=0.001 switch=T
New Line.30CF_1567 phases=3 bus1=750891.1.2.3 bus2=30CF1567.1.2.3 r1=0.001 r0=0.001 x1=0 x0=0 c1=0 c0=0 length=0.001 switch=T
New Line.30CF_1568 phases=3 bus1=754591.1.2.3 bus2=30CF1568.1.2.3 r1=0.001 r0=0.001 x1=0 x0=0 c1=0 c0=0 length=0.001 switch=T
New Line.30CF_1593 phases=3 bus1=754611.1.2.3 bus2=30CF1593.1.2.3 r1=0.001 r0=0.001 x1=0 x0=0 c1=0 c0=0 length=0.001 switch=T
New Line.30CF_1624 phases=1 bus1=765731.3 bus2=30CF1624.3 r1=0.001 r0=0.001 x1=0 x0=0 c1=0 c0=0 length=0.001 switch=T
New Line.30CF_1632 phases=3 bus1=759141.1.2.3 bus2=30CF1632.1.2.3 r1=0.001 r0=0.001 x1=0 x0=0 c1=0 c0=0 length=0.001 switch=T
New Line.30CF_1645 phases=1 bus1=559131.3 bus2=30CF1645.3 r1=0.001 r0=0.001 x1=0 x0=0 c1=0 c0=0 length=0.001 switch=T
New Line.30CF_1655 phases=3 bus1=768721.1.2.3 bus2=30CF1655.1.2.3 r1=0.001 r0=0.001 x1=0 x0=0 c1=0 c0=0 length=0.001 switch=T
New Line.30CF_1671 phases=3 bus1=769581.1.2.3 bus2=30CF1671.1.2.3 r1=0.001 r0=0.001 x1=0 x0=0 c1=0 c0=0 length=0.001 switch=T
New Line.30CF_1710 phases=3 bus1=803951.1.2.3 bus2=30CF1710.1.2.3 r1=0.001 r0=0.001 x1=0 x0=0 c1=0 c0=0 length=0.001 switch=T
New Line.30CF_1772 phases=3 bus1=792591.1.2.3 bus2=30CF1772.1.2.3 r1=0.001 r0=0.001 x1=0 x0=0 c1=0 c0=0 length=0.001 switch=T
New Line.30CF_1807 phases=3 bus1=811551.1.2.3 bus2=30CF1807.1.2.3 r1=0.001 r0=0.001 x1=0 x0=0 c1=0 c0=0 length=0.001 switch=T
New Line.30CF_1811 phases=1 bus1=808221.2 bus2=30CF1811.2 r1=0.001 r0=0.001 x1=0 x0=0 c1=0 c0=0 length=0.001 switch=T
New Line.30CF_1812 phases=3 bus1=815971.1.2.3 bus2=30CF1812.1.2.3 r1=0.001 r0=0.001 x1=0 x0=0 c1=0 c0=0 length=0.001 switch=T
New Line.30CF_1819 phases=3 bus1=806601.1.2.3 bus2=30CF1819.1.2.3 r1=0.001 r0=0.001 x1=0 x0=0 c1=0 c0=0 length=0.001 switch=T
New Line.30CF_1845 phases=3 bus1=803991.1.2.3 bus2=30CF1845.1.2.3 r1=0.001 r0=0.001 x1=0 x0=0 c1=0 c0=0 length=0.001 switch=T
New Line.30CF_1846 phases=1 bus1=804001.1 bus2=30CF1846.1 r1=0.001 r0=0.001 x1=0 x0=0 c1=0 c0=0 length=0.001 switch=T
New Line.30CF_1849 phases=1 bus1=802271.2 bus2=30CF1849.2 r1=0.001 r0=0.001 x1=0 x0=0 c1=0 c0=0 length=0.001 switch=T
New Line.30CF_1856 phases=1 bus1=795611.2 bus2=30CF1856.2 r1=0.001 r0=0.001 x1=0 x0=0 c1=0 c0=0 length=0.001 switch=T
New Line.30CF_1857 phases=1 bus1=795691.2 bus2=30CF1857.2 r1=0.001 r0=0.001 x1=0 x0=0 c1=0 c0=0 length=0.001 switch=T
New Line.30CF_1878 phases=1 bus1=800261.2 bus2=30CF1878.2 r1=0.001 r0=0.001 x1=0 x0=0 c1=0 c0=0 length=0.001 switch=T
New Line.30CF_1879 phases=1 bus1=800271.2 bus2=30CF1879.2 r1=0.001 r0=0.001 x1=0 x0=0 c1=0 c0=0 length=0.001 switch=T
New Line.30CF_1880 phases=1 bus1=800081.2 bus2=30CF1880.2 r1=0.001 r0=0.001 x1=0 x0=0 c1=0 c0=0 length=0.001 switch=T
New Line.30CF_1893 phases=1 bus1=795411.2 bus2=30CF1893.2 r1=0.001 r0=0.001 x1=0 x0=0 c1=0 c0=0 length=0.001 switch=T
New Line.30CF_1894 phases=1 bus1=795701.2 bus2=30CF1894.2 r1=0.001 r0=0.001 x1=0 x0=0 c1=0 c0=0 length=0.001 switch=T
New Line.30CF_1918 phases=3 bus1=813581.1.2.3 bus2=30CF1918.1.2.3 r1=0.001 r0=0.001 x1=0 x0=0 c1=0 c0=0 length=0.001 switch=T
New Line.30CF_1942 phases=3 bus1=816181.1.2.3 bus2=30CF1942.1.2.3 r1=0.001 r0=0.001 x1=0 x0=0 c1=0 c0=0 length=0.001 switch=T
New Line.30CF_368 phases=3 bus1=451751.1.2.3 bus2=30CF368.1.2.3 r1=0.001 r0=0.001 x1=0 x0=0 c1=0 c0=0 length=0.001 switch=T
New Line.30CF_498 phases=1 bus1=360231.1 bus2=30CF498.1 r1=0.001 r0=0.001 x1=0 x0=0 c1=0 c0=0 length=0.001 switch=T
New Line.30CF_608 phases=3 bus1=664741.1.2.3 bus2=30CF608.1.2.3 r1=0.001 r0=0.001 x1=0 x0=0 c1=0 c0=0 length=0.001 switch=T
New Line.30CF_609 phases=3 bus1=789802.1.2.3 bus2=30CF609.1.2.3 r1=0.001 r0=0.001 x1=0 x0=0 c1=0 c0=0 length=0.001 switch=T
New Line.30CF_613 phases=3 bus1=309551.1.2.3 bus2=30CF613.1.2.3 r1=0.001 r0=0.001 x1=0 x0=0 c1=0 c0=0 length=0.001 switch=T
New Line.30CF_619 phases=3 bus1=182951.1.2.3 bus2=30CF619.1.2.3 r1=0.001 r0=0.001 x1=0 x0=0 c1=0 c0=0 length=0.001 switch=T
New Line.30CF_620 phases=1 bus1=310851.2 bus2=30CF620.2 r1=0.001 r0=0.001 x1=0 x0=0 c1=0 c0=0 length=0.001 switch=T
New Line.30CF_622 phases=3 bus1=560821.1.2.3 bus2=30CF622.1.2.3 r1=0.001 r0=0.001 x1=0 x0=0 c1=0 c0=0 length=0.001 switch=T
New Line.30CF_624 phases=3 bus1=668601.1.2.3 bus2=30CF624.1.2.3 r1=0.001 r0=0.001 x1=0 x0=0 c1=0 c0=0 length=0.001 switch=T
New Line.30CF_664 phases=3 bus1=347931.1.2.3 bus2=30CF664.1.2.3 r1=0.001 r0=0.001 x1=0 x0=0 c1=0 c0=0 length=0.001 switch=T
New Line.30CF_672 phases=3 bus1=359061.1.2.3 bus2=30CF672.1.2.3 r1=0.001 r0=0.001 x1=0 x0=0 c1=0 c0=0 length=0.001 switch=T
New Line.30CF_711 phases=3 bus1=304741.1.2.3 bus2=30CF711.1.2.3 r1=0.001 r0=0.001 x1=0 x0=0 c1=0 c0=0 length=0.001 switch=T
New Line.30CF_810 phases=3 bus1=754621.1.2.3 bus2=30CF810.1.2.3 r1=0.001 r0=0.001 x1=0 x0=0 c1=0 c0=0 length=0.001 switch=T
New Line.30CF_812 phases=1 bus1=476431.1 bus2=30CF812.1 r1=0.001 r0=0.001 x1=0 x0=0 c1=0 c0=0 length=0.001 switch=T
New Line.30CF_896 phases=3 bus1=390781.1.2.3 bus2=30CF896.1.2.3 r1=0.001 r0=0.001 x1=0 x0=0 c1=0 c0=0 length=0.001 switch=T
New Line.30CF_977 phases=3 bus1=803971.1.2.3 bus2=30CF977.1.2.3 r1=0.001 r0=0.001 x1=0 x0=0 c1=0 c0=0 length=0.001 switch=T
New Line.30CF_981 phases=1 bus1=475361.3 bus2=30CF981.3 r1=0.001 r0=0.001 x1=0 x0=0 c1=0 c0=0 length=0.001 switch=T
New Line.30CS_1008 phases=3 bus1=560571.1.2.3 bus2=30CS1008.1.2.3 r1=0.001 r0=0.001 x1=0 x0=0 c1=0 c0=0 length=0.001 switch=T
New Line.30CS_1030 phases=3 bus1=798471.1.2.3 bus2=30CS1030.1.2.3 r1=0.001 r0=0.001 x1=0 x0=0 c1=0 c0=0 length=0.001 switch=T
New Line.30CS_1783 phases=3 bus1=795141.1.2.3 bus2=30CS1783.1.2.3 r1=0.001 r0=0.001 x1=0 x0=0 c1=0 c0=0 length=0.001 switch=T
New Line.30CS_1844 phases=3 bus1=803141.1.2.3 bus2=30CS1844.1.2.3 r1=0.001 r0=0.001 x1=0 x0=0 c1=0 c0=0 length=0.001 switch=T
New Line.30CS_1848 phases=3 bus1=802251.1.2.3 bus2=30CS1848.1.2.3 r1=0.001 r0=0.001 x1=0 x0=0 c1=0 c0=0 length=0.001 switch=T
New Line.30CS_612 phases=3 bus1=329191.1.2.3 bus2=30CS612.1.2.3 r1=0.001 r0=0.001 x1=0 x0=0 c1=0 c0=0 length=0.001 switch=T
New Line.30CS_625 phases=3 bus1=470271.1.2.3 bus2=30CS625.1.2.3 r1=0.001 r0=0.001 x1=0 x0=0 c1=0 c0=0 length=0.001 switch=T
New Line.30CS_809 phases=3 bus1=309521.1.2.3 bus2=30CS809.1.2.3 r1=0.001 r0=0.001 x1=0 x0=0 c1=0 c0=0 length=0.001 switch=T
New Line.30FR_1487 phases=3 bus1=806611.1.2.3 bus2=30FR1487.1.2.3 r1=0.001 r0=0.001 x1=0 x0=0 c1=0 c0=0 length=0.001 switch=T
New Line.30FR_615 phases=3 bus1=347581.1.2.3 bus2=30FR615.1.2.3 r1=0.001 r0=0.001 x1=0 x0=0 c1=0 c0=0 length=0.001 switch=T
New Line.30FR_616 phases=3 bus1=532951.1.2.3 bus2=30FR616.1.2.3 r1=0.001 r0=0.001 x1=0 x0=0 c1=0 c0=0 length=0.001 switch=T
New Line.30FR_617 phases=3 bus1=772141.1.2.3 bus2=30FR617.1.2.3 r1=0.001 r0=0.001 x1=0 x0=0 c1=0 c0=0 length=0.001 switch=T
New Line.30FR_618 phases=1 bus1=315521.2 bus2=30FR618.2 r1=0.001 r0=0.001 x1=0 x0=0 c1=0 c0=0 length=0.001 switch=T
New Line.30FR_665 phases=3 bus1=805931.1.2.3 bus2=30FR665.1.2.3 r1=0.001 r0=0.001 x1=0 x0=0 c1=0 c0=0 length=0.001 switch=T
New Line.30FR_753 phases=3 bus1=347591.1.2.3 bus2=30FR753.1.2.3 r1=0.001 r0=0.001 x1=0 x0=0 c1=0 c0=0 length=0.001 switch=T
New Line.30FR_775 phases=3 bus1=282731.1.2.3 bus2=30FR775.1.2.3 r1=0.001 r0=0.001 x1=0 x0=0 c1=0 c0=0 length=0.001 switch=T
New Line.30FR_851 phases=3 bus1=797771.1.2.3 bus2=30FR851.1.2.3 r1=0.001 r0=0.001 x1=0 x0=0 c1=0 c0=0 length=0.001 switch=T
New Line.30RL_1476 phases=3 bus1=682241.1.2.3 bus2=30RL1476.1.2.3 r1=0.001 r0=0.001 x1=0 x0=0 c1=0 c0=0 length=0.001 switch=T
New Line.30RL_1860 phases=3 bus1=803072.1.2.3 bus2=30RL1860.1.2.3 r1=0.001 r0=0.001 x1=0 x0=0 c1=0 c0=0 length=0.001 switch=T
New Line.30UM_1129 phases=3 bus1=326051.1.2.3 bus2=30UM1129.1.2.3 r1=0.001 r0=0.001 x1=0 x0=0 c1=0 c0=0 length=0.001 switch=T
New Line.3CF_1016 phases=1 bus1=580841.2 bus2=3CF1016.2 r1=0.001 r0=0.001 x1=0 x0=0 c1=0 c0=0 length=0.001 switch=T
New Line.3CF_1117 phases=3 bus1=646711.1.2.3 bus2=3CF1117.1.2.3 r1=0.001 r0=0.001 x1=0 x0=0 c1=0 c0=0 length=0.001 switch=T
New Line.3CF_1203 phases=3 bus1=553621.1.2.3 bus2=3CF1203.1.2.3 r1=0.001 r0=0.001 x1=0 x0=0 c1=0 c0=0 length=0.001 switch=T
New Line.3CF_1204 phases=1 bus1=389711.2 bus2=3CF1204.2 r1=0.001 r0=0.001 x1=0 x0=0 c1=0 c0=0 length=0.001 switch=T
New Line.3CF_1205 phases=1 bus1=615811.1 bus2=3CF1205.1 r1=0.001 r0=0.001 x1=0 x0=0 c1=0 c0=0 length=0.001 switch=T
New Line.3CF_1231 phases=1 bus1=717331.3 bus2=3CF1231.3 r1=0.001 r0=0.001 x1=0 x0=0 c1=0 c0=0 length=0.001 switch=T
New Line.3CF_1232 phases=3 bus1=717441.1.2.3 bus2=3CF1232.1.2.3 r1=0.001 r0=0.001 x1=0 x0=0 c1=0 c0=0 length=0.001 switch=T
New Line.3CF_1247 phases=1 bus1=713531.2 bus2=3CF1247.2 r1=0.001 r0=0.001 x1=0 x0=0 c1=0 c0=0 length=0.001 switch=T
New Line.3CF_1248 phases=1 bus1=713551.3 bus2=3CF1248.3 r1=0.001 r0=0.001 x1=0 x0=0 c1=0 c0=0 length=0.001 switch=T
New Line.3CF_1311 phases=3 bus1=701671.1.2.3 bus2=3CF1311.1.2.3 r1=0.001 r0=0.001 x1=0 x0=0 c1=0 c0=0 length=0.001 switch=T
New Line.3CF_1325 phases=1 bus1=775561.1 bus2=3CF1325.1 r1=0.001 r0=0.001 x1=0 x0=0 c1=0 c0=0 length=0.001 switch=T
New Line.3CF_1326 phases=3 bus1=530151.1.2.3 bus2=3CF1326.1.2.3 r1=0.001 r0=0.001 x1=0 x0=0 c1=0 c0=0 length=0.001 switch=T
New Line.3CF_1341 phases=1 bus1=737491.2 bus2=3CF1341.2 r1=0.001 r0=0.001 x1=0 x0=0 c1=0 c0=0 length=0.001 switch=T
New Line.3CF_1422 phases=3 bus1=693191.1.2.3 bus2=3CF1422.1.2.3 r1=0.001 r0=0.001 x1=0 x0=0 c1=0 c0=0 length=0.001 switch=T
New Line.3CF_1467 phases=3 bus1=788031.1.2.3 bus2=3CF1467.1.2.3 r1=0.001 r0=0.001 x1=0 x0=0 c1=0 c0=0 length=0.001 switch=T
New Line.3CF_1500 phases=1 bus1=686371.2 bus2=3CF1500.2 r1=0.001 r0=0.001 x1=0 x0=0 c1=0 c0=0 length=0.001 switch=T
New Line.3CF_1503 phases=1 bus1=692391.3 bus2=3CF1503.3 r1=0.001 r0=0.001 x1=0 x0=0 c1=0 c0=0 length=0.001 switch=T
New Line.3CF_1504 phases=1 bus1=692481.3 bus2=3CF1504.3 r1=0.001 r0=0.001 x1=0 x0=0 c1=0 c0=0 length=0.001 switch=T
New Line.3CF_1508 phases=3 bus1=693111.1.2.3 bus2=3CF1508.1.2.3 r1=0.001 r0=0.001 x1=0 x0=0 c1=0 c0=0 length=0.001 switch=T
New Line.3CF_1509 phases=1 bus1=693171.1 bus2=3CF1509.1 r1=0.001 r0=0.001 x1=0 x0=0 c1=0 c0=0 length=0.001 switch=T
New Line.3CF_1551 phases=1 bus1=751941.1 bus2=3CF1551.1 r1=0.001 r0=0.001 x1=0 x0=0 c1=0 c0=0 length=0.001 switch=T
New Line.3CF_1554 phases=3 bus1=748651.1.2.3 bus2=3CF1554.1.2.3 r1=0.001 r0=0.001 x1=0 x0=0 c1=0 c0=0 length=0.001 switch=T
New Line.3CF_1566 phases=2 bus1=750651.1.2 bus2=3CF1566.1.2 r1=0.001 r0=0.001 x1=0 x0=0 c1=0 c0=0 length=0.001 switch=T
New Line.3CF_1588 phases=1 bus1=90561.2 bus2=3CF1588.2 r1=0.001 r0=0.001 x1=0 x0=0 c1=0 c0=0 length=0.001 switch=T
New Line.3CF_1612 phases=1 bus1=762561.3 bus2=3CF1612.3 r1=0.001 r0=0.001 x1=0 x0=0 c1=0 c0=0 length=0.001 switch=T
New Line.3CF_1613 phases=1 bus1=762581.2 bus2=3CF1613.2 r1=0.001 r0=0.001 x1=0 x0=0 c1=0 c0=0 length=0.001 switch=T
New Line.3CF_1667 phases=3 bus1=765291.1.2.3 bus2=3CF1667.1.2.3 r1=0.001 r0=0.001 x1=0 x0=0 c1=0 c0=0 length=0.001 switch=T
New Line.3CF_1692 phases=3 bus1=782521.1.2.3 bus2=3CF1692.1.2.3 r1=0.001 r0=0.001 x1=0 x0=0 c1=0 c0=0 length=0.001 switch=T
New Line.3CF_1764 phases=3 bus1=811691.1.2.3 bus2=3CF1764.1.2.3 r1=0.001 r0=0.001 x1=0 x0=0 c1=0 c0=0 length=0.001 switch=T
New Line.3CF_1794 phases=3 bus1=791441.1.2.3 bus2=3CF1794.1.2.3 r1=0.001 r0=0.001 x1=0 x0=0 c1=0 c0=0 length=0.001 switch=T
New Line.3CF_1801 phases=3 bus1=812111.1.2.3 bus2=3CF1801.1.2.3 r1=0.001 r0=0.001 x1=0 x0=0 c1=0 c0=0 length=0.001 switch=T
New Line.3CF_1803 phases=1 bus1=810421.3 bus2=3CF1803.3 r1=0.001 r0=0.001 x1=0 x0=0 c1=0 c0=0 length=0.001 switch=T
New Line.3CF_1851 phases=1 bus1=799951.1 bus2=3CF1851.1 r1=0.001 r0=0.001 x1=0 x0=0 c1=0 c0=0 length=0.001 switch=T
New Line.3CF_1900 phases=1 bus1=790701.3 bus2=3CF1900.3 r1=0.001 r0=0.001 x1=0 x0=0 c1=0 c0=0 length=0.001 switch=T
New Line.3CF_1926 phases=3 bus1=817081.1.2.3 bus2=3CF1926.1.2.3 r1=0.001 r0=0.001 x1=0 x0=0 c1=0 c0=0 length=0.001 switch=T
New Line.3CF_263 phases=1 bus1=73371.2 bus2=3CF263.2 r1=0.001 r0=0.001 x1=0 x0=0 c1=0 c0=0 length=0.001 switch=T
New Line.3CF_264 phases=2 bus1=54441.3.1 bus2=3CF264.3.1 r1=0.001 r0=0.001 x1=0 x0=0 c1=0 c0=0 length=0.001 switch=T
New Line.3CF_265 phases=3 bus1=595821.1.2.3 bus2=3CF265.1.2.3 r1=0.001 r0=0.001 x1=0 x0=0 c1=0 c0=0 length=0.001 switch=T
New Line.3CF_391 phases=2 bus1=214231.2.3 bus2=3CF391.2.3 r1=0.001 r0=0.001 x1=0 x0=0 c1=0 c0=0 length=0.001 switch=T
New Line.3CF_412 phases=3 bus1=322831.1.2.3 bus2=3CF412.1.2.3 r1=0.001 r0=0.001 x1=0 x0=0 c1=0 c0=0 length=0.001 switch=T
New Line.3CF_503 phases=2 bus1=153781.3.1 bus2=3CF503.3.1 r1=0.001 r0=0.001 x1=0 x0=0 c1=0 c0=0 length=0.001 switch=T
New Line.3CF_508 phases=1 bus1=222101.3 bus2=3CF508.3 r1=0.001 r0=0.001 x1=0 x0=0 c1=0 c0=0 length=0.001 switch=T
New Line.3CF_510 phases=3 bus1=807451.1.2.3 bus2=3CF510.1.2.3 r1=0.001 r0=0.001 x1=0 x0=0 c1=0 c0=0 length=0.001 switch=T
New Line.3CF_511 phases=1 bus1=540491.3 bus2=3CF511.3 r1=0.001 r0=0.001 x1=0 x0=0 c1=0 c0=0 length=0.001 switch=T
New Line.3CF_514 phases=3 bus1=209221.1.2.3 bus2=3CF514.1.2.3 r1=0.001 r0=0.001 x1=0 x0=0 c1=0 c0=0 length=0.001 switch=T
New Line.3CF_517 phases=3 bus1=195611.1.2.3 bus2=3CF517.1.2.3 r1=0.001 r0=0.001 x1=0 x0=0 c1=0 c0=0 length=0.001 switch=T
New Line.3CF_519 phases=1 bus1=210601.1 bus2=3CF519.1 r1=0.001 r0=0.001 x1=0 x0=0 c1=0 c0=0 length=0.001 switch=T
New Line.3CF_660 phases=3 bus1=310691.1.2.3 bus2=3CF660.1.2.3 r1=0.001 r0=0.001 x1=0 x0=0 c1=0 c0=0 length=0.001 switch=T
New Line.3CF_717 phases=3 bus1=286921.1.2.3 bus2=3CF717.1.2.3 r1=0.001 r0=0.001 x1=0 x0=0 c1=0 c0=0 length=0.001 switch=T
New Line.3CF_760 phases=1 bus1=305901.2 bus2=3CF760.2 r1=0.001 r0=0.001 x1=0 x0=0 c1=0 c0=0 length=0.001 switch=T
New Line.3CF_772 phases=2 bus1=337981.3.1 bus2=3CF772.3.1 r1=0.001 r0=0.001 x1=0 x0=0 c1=0 c0=0 length=0.001 switch=T
New Line.3CF_791 phases=3 bus1=307431.1.2.3 bus2=3CF791.1.2.3 r1=0.001 r0=0.001 x1=0 x0=0 c1=0 c0=0 length=0.001 switch=T
New Line.3CF_792 phases=3 bus1=307441.1.2.3 bus2=3CF792.1.2.3 r1=0.001 r0=0.001 x1=0 x0=0 c1=0 c0=0 length=0.001 switch=T
New Line.3CF_802 phases=3 bus1=610261.1.2.3 bus2=3CF802.1.2.3 r1=0.001 r0=0.001 x1=0 x0=0 c1=0 c0=0 length=0.001 switch=T
New Line.3CF_803 phases=3 bus1=610241.1.2.3 bus2=3CF803.1.2.3 r1=0.001 r0=0.001 x1=0 x0=0 c1=0 c0=0 length=0.001 switch=T
New Line.3CF_804 phases=1 bus1=610211.2 bus2=3CF804.2 r1=0.001 r0=0.001 x1=0 x0=0 c1=0 c0=0 length=0.001 switch=T
New Line.3CF_805 phases=1 bus1=610181.2 bus2=3CF805.2 r1=0.001 r0=0.001 x1=0 x0=0 c1=0 c0=0 length=0.001 switch=T
New Line.3CF_806 phases=2 bus1=609451.3.1 bus2=3CF806.3.1 r1=0.001 r0=0.001 x1=0 x0=0 c1=0 c0=0 length=0.001 switch=T
New Line.3CF_807 phases=1 bus1=610151.3 bus2=3CF807.3 r1=0.001 r0=0.001 x1=0 x0=0 c1=0 c0=0 length=0.001 switch=T
New Line.3CF_819 phases=3 bus1=611681.1.2.3 bus2=3CF819.1.2.3 r1=0.001 r0=0.001 x1=0 x0=0 c1=0 c0=0 length=0.001 switch=T
New Line.3CF_829 phases=3 bus1=629041.1.2.3 bus2=3CF829.1.2.3 r1=0.001 r0=0.001 x1=0 x0=0 c1=0 c0=0 length=0.001 switch=T
New Line.3CF_830 phases=3 bus1=594741.1.2.3 bus2=3CF830.1.2.3 r1=0.001 r0=0.001 x1=0 x0=0 c1=0 c0=0 length=0.001 switch=T
New Line.3CF_868 phases=3 bus1=476231.1.2.3 bus2=3CF868.1.2.3 r1=0.001 r0=0.001 x1=0 x0=0 c1=0 c0=0 length=0.001 switch=T
New Line.3CF_875 phases=3 bus1=594761.1.2.3 bus2=3CF875.1.2.3 r1=0.001 r0=0.001 x1=0 x0=0 c1=0 c0=0 length=0.001 switch=T
New Line.3CF_876 phases=3 bus1=615361.1.2.3 bus2=3CF876.1.2.3 r1=0.001 r0=0.001 x1=0 x0=0 c1=0 c0=0 length=0.001 switch=T
New Line.3CF_878 phases=3 bus1=216761.1.2.3 bus2=3CF878.1.2.3 r1=0.001 r0=0.001 x1=0 x0=0 c1=0 c0=0 length=0.001 switch=T
New Line.3CO_1363 phases=3 bus1=748701.1.2.3 bus2=3CO1363.1.2.3 r1=0.001 r0=0.001 x1=0 x0=0 c1=0 c0=0 length=0.001 switch=T
New Line.3CS_1290 phases=3 bus1=778891.1.2.3 bus2=3CS1290.1.2.3 r1=0.001 r0=0.001 x1=0 x0=0 c1=0 c0=0 length=0.001 switch=T
New Line.3CS_1611 phases=3 bus1=762541.1.2.3 bus2=3CS1611.1.2.3 r1=0.001 r0=0.001 x1=0 x0=0 c1=0 c0=0 length=0.001 switch=T
New Line.3CS_1697 phases=3 bus1=771631.1.2.3 bus2=3CS1697.1.2.3 r1=0.001 r0=0.001 x1=0 x0=0 c1=0 c0=0 length=0.001 switch=T
New Line.3CS_1804 phases=3 bus1=811401.1.2.3 bus2=3CS1804.1.2.3 r1=0.001 r0=0.001 x1=0 x0=0 c1=0 c0=0 length=0.001 switch=T
New Line.3CS_1913 phases=3 bus1=813741.1.2.3 bus2=3CS1913.1.2.3 r1=0.001 r0=0.001 x1=0 x0=0 c1=0 c0=0 length=0.001 switch=T
New Line.3CS_1914 phases=3 bus1=813751.1.2.3 bus2=3CS1914.1.2.3 r1=0.001 r0=0.001 x1=0 x0=0 c1=0 c0=0 length=0.001 switch=T
New Line.3CS_505 phases=3 bus1=222071.1.2.3 bus2=3CS505.1.2.3 r1=0.001 r0=0.001 x1=0 x0=0 c1=0 c0=0 length=0.001 switch=T
New Line.3CS_522 phases=3 bus1=214251.1.2.3 bus2=3CS522.1.2.3 r1=0.001 r0=0.001 x1=0 x0=0 c1=0 c0=0 length=0.001 switch=T
New Line.3CS_523 phases=3 bus1=794932.1.2.3 bus2=3CS523.1.2.3 r1=0.001 r0=0.001 x1=0 x0=0 c1=0 c0=0 length=0.001 switch=T
New Line.3CS_693 phases=3 bus1=304851.1.2.3 bus2=3CS693.1.2.3 r1=0.001 r0=0.001 x1=0 x0=0 c1=0 c0=0 length=0.001 switch=T
New Line.3CS_694 phases=3 bus1=375881.1.2.3 bus2=3CS694.1.2.3 r1=0.001 r0=0.001 x1=0 x0=0 c1=0 c0=0 length=0.001 switch=T
New Line.3FR_1284 phases=3 bus1=222081.1.2.3 bus2=3FR1284.1.2.3 r1=0.001 r0=0.001 x1=0 x0=0 c1=0 c0=0 length=0.001 switch=T
New Line.3FR_1417 phases=3 bus1=791701.1.2.3 bus2=3FR1417.1.2.3 r1=0.001 r0=0.001 x1=0 x0=0 c1=0 c0=0 length=0.001 switch=T
New Line.3FR_1695 phases=3 bus1=782471.1.2.3 bus2=3FR1695.1.2.3 r1=0.001 r0=0.001 x1=0 x0=0 c1=0 c0=0 length=0.001 switch=T
New Line.3FR_1922 phases=3 bus1=814771.1.2.3 bus2=3FR1922.1.2.3 r1=0.001 r0=0.001 x1=0 x0=0 c1=0 c0=0 length=0.001 switch=T
New Line.3FR_260 phases=3 bus1=54431.1.2.3 bus2=3FR260.1.2.3 r1=0.001 r0=0.001 x1=0 x0=0 c1=0 c0=0 length=0.001 switch=T
New Line.3FR_261 phases=3 bus1=54421.1.2.3 bus2=3FR261.1.2.3 r1=0.001 r0=0.001 x1=0 x0=0 c1=0 c0=0 length=0.001 switch=T
New Line.3FR_262 phases=3 bus1=599941.1.2.3 bus2=3FR262.1.2.3 r1=0.001 r0=0.001 x1=0 x0=0 c1=0 c0=0 length=0.001 switch=T
New Line.3FR_388 phases=3 bus1=627651.1.2.3 bus2=3FR388.1.2.3 r1=0.001 r0=0.001 x1=0 x0=0 c1=0 c0=0 length=0.001 switch=T
New Line.3FR_502 phases=3 bus1=154551.1.2.3 bus2=3FR502.1.2.3 r1=0.001 r0=0.001 x1=0 x0=0 c1=0 c0=0 length=0.001 switch=T
New Line.3FR_504 phases=3 bus1=215311.1.2.3 bus2=3FR504.1.2.3 r1=0.001 r0=0.001 x1=0 x0=0 c1=0 c0=0 length=0.001 switch=T
New Line.3FR_512 phases=3 bus1=782501.1.2.3 bus2=3FR512.1.2.3 r1=0.001 r0=0.001 x1=0 x0=0 c1=0 c0=0 length=0.001 switch=T
New Line.3FR_513 phases=3 bus1=153741.1.2.3 bus2=3FR513.1.2.3 r1=0.001 r0=0.001 x1=0 x0=0 c1=0 c0=0 length=0.001 switch=T
New Line.3FR_515 phases=3 bus1=762601.1.2.3 bus2=3FR515.1.2.3 r1=0.001 r0=0.001 x1=0 x0=0 c1=0 c0=0 length=0.001 switch=T
New Line.3FR_518 phases=2 bus1=195631.2.3 bus2=3FR518.2.3 r1=0.001 r0=0.001 x1=0 x0=0 c1=0 c0=0 length=0.001 switch=T
New Line.3FR_520 phases=2 bus1=63111.1.2 bus2=3FR520.1.2 r1=0.001 r0=0.001 x1=0 x0=0 c1=0 c0=0 length=0.001 switch=T
New Line.3FR_524 phases=1 bus1=814831.2 bus2=3FR524.2 r1=0.001 r0=0.001 x1=0 x0=0 c1=0 c0=0 length=0.001 switch=T
New Line.3FR_755 phases=3 bus1=788161.1.2.3 bus2=3FR755.1.2.3 r1=0.001 r0=0.001 x1=0 x0=0 c1=0 c0=0 length=0.001 switch=T
New Line.3FR_763 phases=3 bus1=765651.1.2.3 bus2=3FR763.1.2.3 r1=0.001 r0=0.001 x1=0 x0=0 c1=0 c0=0 length=0.001 switch=T
New Line.3FR_808 phases=3 bus1=811361.1.2.3 bus2=3FR808.1.2.3 r1=0.001 r0=0.001 x1=0 x0=0 c1=0 c0=0 length=0.001 switch=T
New Line.3FR_816 phases=2 bus1=442561.2.3 bus2=3FR816.2.3 r1=0.001 r0=0.001 x1=0 x0=0 c1=0 c0=0 length=0.001 switch=T
New Line.3FR_825 phases=3 bus1=587181.1.2.3 bus2=3FR825.1.2.3 r1=0.001 r0=0.001 x1=0 x0=0 c1=0 c0=0 length=0.001 switch=T
New Line.3RL_1449 phases=3 bus1=692801.1.2.3 bus2=3RL1449.1.2.3 r1=0.001 r0=0.001 x1=0 x0=0 c1=0 c0=0 length=0.001 switch=T
New Line.3RL_507 phases=3 bus1=222091.1.2.3 bus2=3RL507.1.2.3 r1=0.001 r0=0.001 x1=0 x0=0 c1=0 c0=0 length=0.001 switch=T
New Line.5CF_1436 phases=3 bus1=765491.1.2.3 bus2=5CF1436.1.2.3 r1=0.001 r0=0.001 x1=0 x0=0 c1=0 c0=0 length=0.001 switch=T
New Line.5CF_1920 phases=3 bus1=814051.1.2.3 bus2=5CF1920.1.2.3 r1=0.001 r0=0.001 x1=0 x0=0 c1=0 c0=0 length=0.001 switch=T
New Line.5CF_929 phases=3 bus1=429551.1.2.3 bus2=5CF929.1.2.3 r1=0.001 r0=0.001 x1=0 x0=0 c1=0 c0=0 length=0.001 switch=T
New Line.5CS_1047 phases=3 bus1=400291.1.2.3 bus2=5CS1047.1.2.3 r1=0.001 r0=0.001 x1=0 x0=0 c1=0 c0=0 length=0.001 switch=T
New Line.5CS_1672 phases=3 bus1=767772.1.2.3 bus2=5CS1672.1.2.3 r1=0.001 r0=0.001 x1=0 x0=0 c1=0 c0=0 length=0.001 switch=T
New Line.5CS_1685 phases=3 bus1=774031.1.2.3 bus2=5CS1685.1.2.3 r1=0.001 r0=0.001 x1=0 x0=0 c1=0 c0=0 length=0.001 switch=T
New Line.5CS_1687 phases=3 bus1=767811.1.2.3 bus2=5CS1687.1.2.3 r1=0.001 r0=0.001 x1=0 x0=0 c1=0 c0=0 length=0.001 switch=T
New Line.5CS_823 phases=3 bus1=416001.1.2.3 bus2=5CS823.1.2.3 r1=0.001 r0=0.001 x1=0 x0=0 c1=0 c0=0 length=0.001 switch=T
New Line.5FR_1684 phases=3 bus1=813021.1.2.3 bus2=5FR1684.1.2.3 r1=0.001 r0=0.001 x1=0 x0=0 c1=0 c0=0 length=0.001 switch=T
New Line.5SA_706 phases=3 bus1=639001.1.2.3 bus2=5SA706.1.2.3 r1=0.001 r0=0.001 x1=0 x0=0 c1=0 c0=0 length=0.001 switch=T
New Line.7CF_1356 phases=1 bus1=198951.1 bus2=7CF1356.1 r1=0.001 r0=0.001 x1=0 x0=0 c1=0 c0=0 length=0.001 switch=T
New Line.7CF_1494 phases=1 bus1=696501.2 bus2=7CF1494.2 r1=0.001 r0=0.001 x1=0 x0=0 c1=0 c0=0 length=0.001 switch=T
New Line.7CF_1507 phases=1 bus1=692861.2 bus2=7CF1507.2 r1=0.001 r0=0.001 x1=0 x0=0 c1=0 c0=0 length=0.001 switch=T
New Line.7CF_1517 phases=3 bus1=679421.1.2.3 bus2=7CF1517.1.2.3 r1=0.001 r0=0.001 x1=0 x0=0 c1=0 c0=0 length=0.001 switch=T
New Line.7CF_1518 phases=3 bus1=679471.1.2.3 bus2=7CF1518.1.2.3 r1=0.001 r0=0.001 x1=0 x0=0 c1=0 c0=0 length=0.001 switch=T
New Line.7CF_1544 phases=3 bus1=748061.1.2.3 bus2=7CF1544.1.2.3 r1=0.001 r0=0.001 x1=0 x0=0 c1=0 c0=0 length=0.001 switch=T
New Line.7CF_534 phases=1 bus1=163761.2 bus2=7CF534.2 r1=0.001 r0=0.001 x1=0 x0=0 c1=0 c0=0 length=0.001 switch=T
New Line.7CF_731 phases=3 bus1=746681.1.2.3 bus2=7CF731.1.2.3 r1=0.001 r0=0.001 x1=0 x0=0 c1=0 c0=0 length=0.001 switch=T
New Line.7CF_784 phases=1 bus1=757801.3 bus2=7CF784.3 r1=0.001 r0=0.001 x1=0 x0=0 c1=0 c0=0 length=0.001 switch=T
New Line.7CF_798 phases=1 bus1=633481.2 bus2=7CF798.2 r1=0.001 r0=0.001 x1=0 x0=0 c1=0 c0=0 length=0.001 switch=T
New Line.7CF_867 phases=3 bus1=204521.1.2.3 bus2=7CF867.1.2.3 r1=0.001 r0=0.001 x1=0 x0=0 c1=0 c0=0 length=0.001 switch=T
New Line.7CS_757 phases=3 bus1=441981.1.2.3 bus2=7CS757.1.2.3 r1=0.001 r0=0.001 x1=0 x0=0 c1=0 c0=0 length=0.001 switch=T
New Line.7FR_532 phases=3 bus1=799331.1.2.3 bus2=7FR532.1.2.3 r1=0.001 r0=0.001 x1=0 x0=0 c1=0 c0=0 length=0.001 switch=T
